docs/logs/04_pandapower_opf_demo.log
INFO:__main__:Initializing Pandapower Analysis Server
INFO:__main__:Loading network from file: D:\coding\powerMcp_Pskills\examples\data\case39.json
INFO:__main__:Running power flow analysis
WARNING:pandapower.auxiliary:numba cannot be imported and numba functions are disabled.
Probably the execution is slow.
Please install numba to gain a massive speedup.
(or if you prefer slow execution, set the flag numba=False to avoid this warning!)
==========================================================================
示例 04：AC / DC 最优潮流（OPF）
==========================================================================
  powermcp     0.4.0
  powerio      0.11.3
  mcp          2.2.0
  pandapower   3.5.4

  ⚠️ 定位声明：OPF 部分**不是 MCP 调用**，而是 Skill 侧直接调用
     pandapower 的 runopp/rundcopp。原因见本文件头部说明。
     步骤 4.2 的一致性闸门确保本地网络与 MCP 网络是同一个。

==========================================================================
步骤 4.1  基态潮流（MCP · powermcp_pandapower）—— 建立基准
==========================================================================
     [MCP] 载入 39 母线 / 35 线路 / 11 变压器
     [MCP] 收敛，母线 30 vm_pu=0.982000 (最低) / 母线 35 vm_pu=1.063600 (最高)
     [MCP] 线路 21 loading_percent=73.37% (最重载)

==========================================================================
步骤 4.2  本地重建同一算例并校验 —— 🔒 一致性闸门
==========================================================================
     从与 MCP 相同的文件重建: case39.json
     本地网络: 39 母线 / 35 线路 / 11 变压器 / 9 机组 / 1 平衡机
numba cannot be imported and numba functions are disabled.
Probably the execution is slow.
Please install numba to gain a massive speedup.
(or if you prefer slow execution, set the flag numba=False to avoid this warning!)

     [闸门] 与 MCP 结果对比（39 个母线）
            最大偏差 |Δ| = 0.000e+00 pu  (母线 0)
            ✅ 一致（阈值 1e-06 pu）—— 本地网络与 MCP 网络是同一个
            ⇒ 后续 OPF 在同一网络上进行，结论对 MCP 侧成立

     [基态基准] 线路 21 最重载 73.37% · 变压器最重载 77.02%
                网损 43.64 MW · 总负荷 6254.23 MW · 总发电 6297.87 MW
                [守恒校验] 发电 - (负荷 + 网损) = -0.0000 MW

==========================================================================
步骤 4.3  AC OPF —— pandapower.runopp()
==========================================================================
numba cannot be imported and numba functions are disabled.
Probably the execution is slow.
Please install numba to gain a massive speedup.
(or if you prefer slow execution, set the flag numba=False to avoid this warning!)
     [pandapower 提示] numba cannot be imported and numba functions are disabled.
Probably the execution is slow.
Please install numba to gain a massive speedup.
(or if you prefer slow execution, set the flag numba=False to avoid this warning!)
gen vm_pu > bus max_vm_pu for gens [5]. Setting bus limit for these gens.
     [说明] 该提示指出机组 5 的电压设定值高于其母线上限，
            pandapower **自动放宽**该母线限值后继续求解。
            这是算例数据自身的不自洽，被求解器容错处理 ——
            对比之下，PyPSA 在同一数据上直接判 infeasible。

     收敛: True   目标函数值: 41,872.30
     机组出力合计 5652.41 MW + 平衡机 646.00 MW = 6298.41 MW
     负荷 6254.23 MW + 网损 44.18 MW = 6298.41 MW
     [守恒校验] 发电 - (负荷 + 网损) = -0.0000 MW

     [机组最优出力] 静默标注 —— 达上限者显式标出，便于核对
       机组            p_mw   max_p_mw    q_mvar    vm_pu   状态
       gen_0     671.4575     1040.0  140.0027   1.0443   
       gen_1     670.6040      725.0  299.9981   1.0191   
       gen_2     651.9934      652.0  133.7294   1.0098   ← 达上限
       gen_3     508.0000      508.0  147.8162   1.0157   ← 达上限
       gen_4     661.5451      687.0  236.2584   1.0600   
       gen_5     580.0000      580.0   68.1022   1.0600   ← 达上限
       gen_6     564.0000      564.0   32.4907   1.0370   ← 达上限
       gen_7     654.4892      865.0  -19.1274   1.0294   
       gen_8     690.3215     1100.0  148.5428   1.0458   
       ext_grid 645.9999 MW  167.7178 MVAr   ← 平衡机

     [电压] 范围 0.9820 ~ 1.0600 pu
            最低 母线 30 = 0.9820   最高 母线 25 = 1.0600
     [负载率] 线路 87.64% (线路 2) · 变压器 80.10%

     [节点边际电价 lam_p] 前 5 高（可用于容量规划论述）
       母线 38   lam_p = 14.1064
       母线 8    lam_p = 14.0631
       母线 0    lam_p = 14.0433
       母线 7    lam_p = 13.9580
       母线 6    lam_p = 13.9255

==========================================================================
步骤 4.4  DC OPF —— pandapower.rundcopp()
==========================================================================
numba cannot be imported and numba functions are disabled.
Probably the execution is slow.
Please install numba to gain a massive speedup.
(or if you prefer slow execution, set the flag numba=False to avoid this warning!)
     [pandapower 提示] gen vm_pu > bus max_vm_pu for gens [5]. Setting bus limit for these gens.
     收敛: True   目标函数值: 41,263.94
     机组出力合计 5608.23 MW + 平衡机 646.00 MW = 6254.23 MW   负荷 6254.23 MW
     [守恒校验] 发电 - 负荷 = -0.0000 MW  (DC 模型无网损假设下应≈0)

     [机组最优出力]
       gen_0     660.8460
       gen_1     660.8460
       gen_2     652.0000
       gen_3     508.0000
       gen_4     660.8460
       gen_5     580.0000
       gen_6     564.0000
       gen_7     660.8460
       gen_8     660.8460
       ext_grid 646.0000 MW   ← 平衡机
     [负载率] 线路 90.16%

==========================================================================
步骤 4.5  基态潮流 vs AC OPF vs DC OPF
==========================================================================

     指标                                  基态潮流        AC OPF        DC OPF
     --------------------------------------------------------------------
     发电合计 (MW)                      6297.8711     6298.4106     6254.2300
     网损 (MW)                          43.6411       44.1806        0.0000
     最低电压 (pu)                         0.9820        0.9820             -
     最高电压 (pu)                         1.0636        1.0600             -
     线路最大负载率 (%)                      73.3709       87.6447             -
     目标函数值                              (未优化)     41,872.30     41,263.94

     [AC vs DC] 目标值差 = 608.36 (+1.474%)
                AC 计及网损（44.18 MW），DC 不计网损，故 DC 目标值更低属预期。

     [逐机组出力对照]
       机组            AC OPF      DC OPF           Δ
       gen_0       671.4575    660.8460    -10.6115
       gen_1       670.6040    660.8460     -9.7580
       gen_2       651.9934    652.0000     +0.0066
       gen_3       508.0000    508.0000     +0.0000
       gen_4       661.5451    660.8460     -0.6991
       gen_5       580.0000    580.0000     +0.0000
       gen_6       564.0000    564.0000     +0.0000
       gen_7       654.4892    660.8460     +6.3568
       gen_8       690.3215    660.8460    -29.4755
       ext_grid    645.9999    646.0000     +0.0001

==========================================================================
[SUCCESS] 示例 04 全部步骤通过
==========================================================================
  交付能力：AC OPF（含节点边际电价）与 DC OPF，均取得具体数值。
  已知例外：该能力不经由 MCP 工具，而是 Skill 侧的 Python 调用。
